[General]
cmdenv-express-mode = true
cmdenv-autoflush = true
cmdenv-status-frequency = 10s
num-rngs = 9

ned-path = .
network = Highway

repeat = 10

##########################################################
#            Simulation parameters                       #
##########################################################
debug-on-errors = true
print-undisposed = true

*.playgroundSizeX = 65000m
*.playgroundSizeY = 25000m
*.playgroundSizeZ = 50m

sim-time-limit = 1000 s

##########################################################
# Annotation parameters                                  #
##########################################################
*.annotations.draw = false

##########################################################
# Obstacle parameters                                    #
##########################################################
*.obstacles.debug = false

##########################################################
#            WorldUtility parameters                     #
##########################################################
*.world.useTorus = false
*.world.use2D = false

##########################################################
#            TraCIScenarioManager parameters             #
##########################################################
*.manager.updateInterval = 0.1 s
*.manager.host = "localhost"
*.manager.moduleType = "vtypeauto=org.car2x.plexe.subprojects.plexe_cv2x.PlatoonCarCV2X vtypehuman=org.car2x.plexe.subprojects.plexe_cv2x.HumanCar"
*.manager.moduleName = "vtypeauto=node vtypehuman=human"
*.manager.moduleDisplayString = ""
*.manager.autoShutdown = true
*.manager.margin = 25


##########################################################
#            11p specific parameters                     #
#                                                        #
#                    NIC-Settings                        #
##########################################################
*.connectionManager.sendDirect = true
*.connectionManager.maxInterfDist = 1000m
*.connectionManager.drawMaxIntfDist = false

##########################################################
#            LTE specific parameters                     #
#                                                        #
#                    NIC-Settings                        #
##########################################################
*.**.d2dCapable = true
*.**.mode4D2D = true
**.amcMode = "D2D"
*.**.nicType = "LteNicVUeMode4"
*.**.lteNic.d2dCapable = true
*.**.lteNic.pdcpRrc.ipBased = false
*.**.lteNic.rlc.ipBased = false
*.**.lteNic.mac.subchannelSize = 16
*.**.lteNic.mac.numSubchannels = 3
*.**.lteNic.mac.probResourceKeep = 0.4
*.**.lteNic.phy.subchannelSize = 16
*.**.lteNic.phy.numSubchannels = 3
*.**.lteNic.phy.selectionWindowStartingSubframe = 1
*.**.lteNic.phy.adjacencyPSCCHPSSCH = true
*.**.lteNic.phy.pStep = 100
*.**.lteNic.phy.thresholdRSSI = 10
*.**.lteNic.phy.ueTxPower = 23
*.**.lteNic.phy.channelModel = xmldoc("config_channel.xml")

########## Hossein ########################################
*.**.lteNic.phy.rssiFiltering = true
*.**.lteNic.mac.hashSelection = false
###########################################################

*.**.lteNic.phy.scalar-recording = true
*.**.lteNic.phy.vector-recording = true
**.averageCqiD2D.result-recording-modes = all

*.**.lteNic.mac.scalar-recording = false
*.**.lteNic.mac.vector-recording = false

**.usePreconfiguredTxParams = true
*.**.lteNic.mac.txConfig = xmldoc("sidelink_configuration.xml")

**.channelControl.pMax = 10W
**.channelControl.alpha = 1.0
**.channelControl.carrierFrequency = 6000e+6Hz
**.rbAllocationType = "localized"
**.feedbackType = "ALLBANDS"
**.feedbackGeneratorType = "IDEAL"
**.maxHarqRtx = 0
**.deployer.ruRange = 50
**.deployer.ruTxPower = "50,50,50;"
**.deployer.antennaCws = "2;" # !!MACRO + RUS (numRus + 1)
**.deployer.numRbDl = 51
**.deployer.numRbUl = 48

**.packetErrorLossRate = "0 0 0 0 0 0 0 0 0"

**.numBands = 48
**.fbDelay = 1

##########################################################
#                      Radio Driver                      #
##########################################################
# mal: Maximum Allowed Latency
*.**.radioDriver.duration = 100

##########################################################
#                      Mobility                          #
##########################################################


*.human[*].mobilityType = "VeinsInetMobility"


*.node[*].traciMobility.x = 0
*.node[*].traciMobility.y = 0
*.node[*].traciMobility.z = 1.895




##########################################################
#                    Seeds and PRNGs                     #
##########################################################
seed-set = ${repetition}
**.seed = ${repetition}

*.node[*].unicast.rng-0 = 4
*.node[*].prot.rng-0 = 5
*.node[*].appl.rng-0 = 6
*.node[*].scenario.rng-0 = 7

**.traffic.rng-0 = 8


#launch config. tells Veins which SUMO configuration to run
*.manager.configFile = "./sumocfg/freeway.sumo.cfg"
*.manager.launchConfig = xmldoc("./sumocfg/freeway.launchd.xml")

##########################################################
#                   Common parameters                    #
##########################################################

**.numberOfCars = ${nCars = 4}
**.numberOfCarsPerPlatoon = ${platoonSize = 4}
**.numberOfLanes = ${nLanes = 1}
**.numberOfHumanCars = ${humanCars = 9..30 step 3}
**.numberOfHumanLanes = ${humanLanes = 3}

##########################################################
#                    Position helper                     #
##########################################################
**.helper_type = "PositionHelper"

##########################################################
#               Scenario common parameters               #
##########################################################

#controller and engine related parameters
*.node[*].scenario.caccC1 = 0.5
*.node[*].scenario.caccXi = 1
*.node[*].scenario.caccOmegaN = 0.2 Hz
*.node[*].scenario.engineTau = 0.5 s
*.node[*].scenario.ploegH = 0.5 s
*.node[*].scenario.ploegKp = 0.2
*.node[*].scenario.ploegKd = 0.7
*.node[*].scenario.useRealisticEngine = false
#via wireless send acceleration computed by the controller, not the actual one
*.node[*].scenario.useControllerAcceleration = false
*.node[*].scenario.nLanes = ${nLanes}



#controllers to be tested
*.node[*].numericController = ${controller = 1}
*.node[*].scenario.controller = ${sController = "PLOEG" ! controller}


#headway for ACCs
**.headway = ${headway = 0.1, 0.1 ! controller}s
*.node[*].scenario.accHeadway = ${headway}s




#average leader speed
*.node[*].scenario.leaderSpeed = ${leaderSpeed = 100}kmph

##########################################################
#                      Application                       #
##########################################################

*.node[*].appl_type = "SimplePlatooningApp"
#enable statistics recording for the application
*.node[*].appl.*.scalar-recording = false
*.node[*].appl.*.vector-recording = false

##########################################################
#                Communication protocols                 #
##########################################################

*.node[*].protocol_type = "SimplePlatooningBeaconing"
*.human[*].protocol_type = "SimplePlatooningBeaconingHuman"
#enable statistics recording for the network layer
*.node[*].prot.*.scalar-recording = false
*.node[*].prot.*.vector-recording = false
*.human[*].prot.*.scalar-recording = false
*.human[*].prot.*.vector-recording = false
#set the beaconing interval to be 0.1s
*.node[*].prot.beaconingInterval = ${beaconInterval = 0.1}s
#access category for platooning beacons
*.node[*].prot.priority = 4
#packet size for platooning beacon
*.node[*].prot.packetSize = 200
#via wireless send acceleration computed by the controller, not the actual one
*.node[*].prot.useControllerAcceleration = true
#set the beaconing interval to be 0.1s
*.human[*].prot.beaconingInterval = 0.1 s

#access category for interfering beacons
*.human[*].prot.priority = 4
#packet size for interfering beacon
*.human[*].prot.packetSize = 200
#tx power for interfering beacon
*.human[*].prot.txPower = 100 mW
#bitrate for interfering beacon
*.human[*].prot.bitrate = 3 Mbps

#tx power for interfering beacon
*.node[*].prot.txPower = 100 mW
#bitrate for interfering beacon
*.node[*].prot.bitrate = 3 Mbps


##########################################################
#                    Traffic manager                     #
##########################################################

**.traffic_type = "PlatoonsPlusHumanTraffic"
#insert platooning vehicles at time
**.traffic.platoonInsertTime = 1 s
#insert platooning vehicles with a speed of
**.traffic.platoonInsertSpeed = ${leaderSpeed}kmph
#insert nCars platooning vehicles
**.traffic.nCars = ${nCars}
#insert humanCars human vehicles
**.traffic.humanCars = ${humanCars}
#let platoonSize cars per platoon
**.traffic.platoonSize = ${platoonSize}
#use nLanes lanes
**.traffic.nLanes = ${nLanes}
#insert humanLanes lanes to insert human vehicles
**.traffic.humanLanes = ${humanLanes}
#SUMO vtype for platooning vehicles
**.traffic.platooningVType = "vtypeauto"
#SUMO vtype for human vehicles
**.traffic.humanVType = "vtypehuman"



#disable statistics recording for all other modules
**.scalar-recording = false
**.vector-recording = false


[Config Platooning]
*.manager.command = "sumo-gui"

#use the base scenario
*.node[*].scenario_type = "SimpleScenario"



**.phy.scalar-recording = true
**.phy.vector-recording = true

**.phy.*.scalar-recording = true
**.phy.*.vector-recording = true

**.mac.*.scalar-recording = false
**.mac.*.vector-recording = false


#output-vector-file = ${resultdir}/${configname}_${controller}_${headway}_${repetition}_${numSubCH}_${subCHsize}_${prk1}_${mal}.vec
#output-scalar-file = ${resultdir}/${configname}_${controller}_${headway}_${repetition}_${numSubCH}_${subCHsize}_${prk1}_${mal}.sca
output-vector-file = ${resultdir}/${configname}_${humanCars}_${repetition}.vec
output-scalar-file = ${resultdir}/${configname}_${humanCars}_${repetition}.sca



[Config Sinusoidal]
*.manager.command = "sumo-gui"

#use the sinusoidal scenario
*.node[*].scenario_type = "SinusoidalScenario"

#make the leader accelerate and decelerate with a sinusoidal trend. set to 0 for constant speed
*.node[*].scenario.leaderOscillationFrequency = 0.2 Hz
*.node[*].scenario.oscillationAmplitude = 10 kmph
*.node[*].scenario.startOscillating = 5 s

#output-vector-file = ${resultdir}/${configname}_${controller}_${headway}_${repetition}_${numSubCH}_${subCHsize}_${prk1}_${mal}.vec
#output-scalar-file = ${resultdir}/${configname}_${controller}_${headway}_${repetition}_${numSubCH}_${subCHsize}_${prk1}_${mal}.sca

[Config Braking]
*.manager.command = "sumo-gui"

#use the braking scenario
*.node[*].scenario_type = "BrakingScenario"
*.human[*].scenario_type = "BrakingScenario"
#make the leader decelerate with a certain deceleration
*.node[*].scenario.leaderOscillationFrequency = 0.2 Hz
*.node[*].scenario.brakingDeceleration = 8 mpsps
*.node[*].scenario.startBraking = 5 s

#output-vector-file = ${resultdir}/${configname}_${controller}_${headway}_${repetition}_${numSubCH}_${subCHsize}_${prk1}_${mal}.vec
#output-scalar-file = ${resultdir}/${configname}_${controller}_${headway}_${repetition}_${numSubCH}_${subCHsize}_${prk1}_${mal}.sca

[Config PlatooningNoGui]
extends = Platooning

*.manager.command = "sumo"
*.manager.ignoreGuiCommands = true
#force the config name in the output file to be the same as for the gui experiment
#output-vector-file = ${resultdir}/Platooning_${controller}_${headway}_${repetition}_${numSubCH}_${subCHsize}_${prk1}_${mal}_${nCars}.vec
#output-scalar-file = ${resultdir}/Platooning_${controller}_${headway}_${repetition}_${numSubCH}_${subCHsize}_${prk1}_${mal}_${nCars}.sca
output-vector-file = ${resultdir}/${configname}_${humanCars}_${repetition}.vec
output-scalar-file = ${resultdir}/${configname}_${humanCars}_${repetition}.sca


[Config SinusoidalNoGui]
extends = Sinusoidal

*.manager.command = "sumo"
*.manager.ignoreGuiCommands = true
#force the config name in the output file to be the same as for the gui experiment
#output-vector-file = ${resultdir}/Sinusoidal_${controller}_${headway}_${repetition}_${numSubCH}_${subCHsize}_${prk1}_${mal}.vec
#output-scalar-file = ${resultdir}/Sinusoidal_${controller}_${headway}_${repetition}_${numSubCH}_${subCHsize}_${prk1}_${mal}.sca

[Config BrakingNoGui]
extends = Braking

*.manager.command = "sumo"
*.manager.ignoreGuiCommands = true
#force the config name in the output file to be the same as for the gui experiment
#output-vector-file = ${resultdir}/Braking_${controller}_${headway}_${repetition}_${numSubCH}_${subCHsize}_${prk1}_${mal}.vec
#output-scalar-file = ${resultdir}/Braking_${controller}_${headway}_${repetition}_${numSubCH}_${subCHsize}_${prk1}_${mal}.sca

